C18H33ClN2O5S
wn    mntm06111000453D 0   0.00000     0.00000UNK
1 corina 3.44 0000  14.05.2008
 60 61  0  0  1  0  0  0  0  0999 V2000
    0.3260    1.1420    0.9630 C   0  0  0  0  0  0  0  0  0  0  0  0
    0.2860   -0.3700    0.7320 C   0  0  0  0  0  0  0  0  0  0  0  0
   -1.1670   -0.8470    0.7280 C   0  0  0  0  0  0  0  0  0  0  0  0
   -1.2070   -2.3590    0.4970 C   0  0  2  0  0  0  0  0  0  0  0  0
   -0.6620   -2.6230   -0.4090 H   0  0  0  0  0  0  0  0  0  0  0  0
   -2.6670   -2.8630    0.4240 C   0  0  0  0  0  0  0  0  0  0  0  0
   -2.6670   -4.2050    1.1790 C   0  0  2  0  0  0  0  0  0  0  0  0
   -3.3270   -4.1450    2.0440 H   0  0  0  0  0  0  0  0  0  0  0  0
   -1.2780   -4.4540    1.6220 N   0  0  0  0  0  0  0  0  0  0  0  0
   -1.2550   -5.1480    2.9170 C   0  0  0  0  0  0  0  0  0  0  0  0
   -0.6350   -3.1160    1.7220 C   0  0  0  0  0  0  0  0  0  0  0  0
   -3.1230   -5.3100    0.2610 C   0  0  0  0  0  0  0  0  0  0  0  0
   -2.3070   -6.0380   -0.2630 O   0  0  0  0  0  0  0  0  0  0  0  0
   -4.4370   -5.4890    0.0230 N   0  0  0  0  0  0  0  0  0  0  0  0
   -4.8810   -6.5630   -0.8690 C   0  0  2  0  0  0  0  0  0  0  0  0
   -4.2230   -7.4250   -0.7550 H   0  0  0  0  0  0  0  0  0  0  0  0
   -4.8340   -6.0740   -2.3180 C   0  0  2  0  0  0  0  0  0  0  0  0
   -5.1640   -6.8730   -2.9820 H   0  0  0  0  0  0  0  0  0  0  0  0
   -3.4010   -5.6730   -2.6760 C   0  0  0  0  0  0  0  0  0  0  0  0
   -5.9220   -4.6490   -2.5070 Cl  0  0  0  0  0  0  0  0  0  0  0  0
   -6.3130   -6.9640   -0.5120 C   0  0  1  0  0  0  0  0  0  0  0  0
   -6.9820   -6.1230   -0.6930 H   0  0  0  0  0  0  0  0  0  0  0  0
   -6.7130   -8.0730   -1.3200 O   0  0  0  0  0  0  0  0  0  0  0  0
   -5.8830   -9.2270   -1.1790 C   0  0  2  0  0  0  0  0  0  0  0  0
   -4.8560   -8.9710   -1.4420 H   0  0  0  0  0  0  0  0  0  0  0  0
   -6.4800  -10.5400   -2.2790 S   0  0  0  0  0  0  0  0  0  0  0  0
   -6.0680   -9.9090   -3.9290 C   0  0  0  0  0  0  0  0  0  0  0  0
   -5.9310   -9.7150    0.2720 C   0  0  2  0  0  0  0  0  0  0  0  0
   -5.2640  -10.5680    0.3920 H   0  0  0  0  0  0  0  0  0  0  0  0
   -7.2670  -10.1020    0.6010 O   0  0  0  0  0  0  0  0  0  0  0  0
   -5.4830   -8.5800    1.1990 C   0  0  1  0  0  0  0  0  0  0  0  0
   -5.5680   -8.9020    2.2370 H   0  0  0  0  0  0  0  0  0  0  0  0
   -4.1250   -8.2390    0.9140 O   0  0  0  0  0  0  0  0  0  0  0  0
   -6.3790   -7.3600    0.9650 C   0  0  1  0  0  0  0  0  0  0  0  0
   -7.4070   -7.6070    1.2310 H   0  0  0  0  0  0  0  0  0  0  0  0
   -5.9250   -6.2720    1.7720 O   0  0  0  0  0  0  0  0  0  0  0  0
    1.3620    1.4820    0.9660 H   0  0  0  0  0  0  0  0  0  0  0  0
   -0.2200    1.6460    0.1660 H   0  0  0  0  0  0  0  0  0  0  0  0
   -0.1350    1.3750    1.9230 H   0  0  0  0  0  0  0  0  0  0  0  0
    0.7480   -0.6030   -0.2280 H   0  0  0  0  0  0  0  0  0  0  0  0
    0.8320   -0.8740    1.5290 H   0  0  0  0  0  0  0  0  0  0  0  0
   -1.6290   -0.6140    1.6880 H   0  0  0  0  0  0  0  0  0  0  0  0
   -1.7130   -0.3430   -0.0690 H   0  0  0  0  0  0  0  0  0  0  0  0
   -3.3360   -2.1540    0.9120 H   0  0  0  0  0  0  0  0  0  0  0  0
   -2.9640   -3.0120   -0.6140 H   0  0  0  0  0  0  0  0  0  0  0  0
   -1.7690   -6.1040    2.8250 H   0  0  0  0  0  0  0  0  0  0  0  0
   -0.2210   -5.3180    3.2190 H   0  0  0  0  0  0  0  0  0  0  0  0
   -1.7560   -4.5360    3.6660 H   0  0  0  0  0  0  0  0  0  0  0  0
    0.4490   -3.2010    1.6500 H   0  0  0  0  0  0  0  0  0  0  0  0
   -0.9230   -2.6210    2.6490 H   0  0  0  0  0  0  0  0  0  0  0  0
   -5.0900   -4.9060    0.4420 H   0  0  0  0  0  0  0  0  0  0  0  0
   -2.7440   -6.5350   -2.5620 H   0  0  0  0  0  0  0  0  0  0  0  0
   -3.3680   -5.3250   -3.7080 H   0  0  0  0  0  0  0  0  0  0  0  0
   -3.0720   -4.8740   -2.0120 H   0  0  0  0  0  0  0  0  0  0  0  0
   -6.3860  -10.6290   -4.6830 H   0  0  0  0  0  0  0  0  0  0  0  0
   -6.5790   -8.9600   -4.0930 H   0  0  0  0  0  0  0  0  0  0  0  0
   -4.9910   -9.7590   -4.0020 H   0  0  0  0  0  0  0  0  0  0  0  0
   -7.6170  -10.8150    0.0490 H   0  0  0  0  0  0  0  0  0  0  0  0
   -3.5020   -8.9690    1.0360 H   0  0  0  0  0  0  0  0  0  0  0  0
   -5.9400   -6.4530    2.7220 H   0  0  0  0  0  0  0  0  0  0  0  0
  1  2  1  0  0  0  0
  1 37  1  0  0  0  0
  1 38  1  0  0  0  0
  1 39  1  0  0  0  0
  2  3  1  0  0  0  0
  2 40  1  0  0  0  0
  2 41  1  0  0  0  0
  3  4  1  0  0  0  0
  3 42  1  0  0  0  0
  3 43  1  0  0  0  0
  4  5  1  0  0  0  0
  4  6  1  0  0  0  0
  4 11  1  0  0  0  0
  6  7  1  0  0  0  0
  6 44  1  0  0  0  0
  6 45  1  0  0  0  0
  7  8  1  0  0  0  0
  7  9  1  0  0  0  0
  7 12  1  0  0  0  0
  9 10  1  0  0  0  0
  9 11  1  0  0  0  0
 10 46  1  0  0  0  0
 10 47  1  0  0  0  0
 10 48  1  0  0  0  0
 11 49  1  0  0  0  0
 11 50  1  0  0  0  0
 12 13  2  0  0  0  0
 12 14  1  0  0  0  0
 14 15  1  0  0  0  0
 14 51  1  0  0  0  0
 15 16  1  0  0  0  0
 15 17  1  0  0  0  0
 15 21  1  0  0  0  0
 17 18  1  0  0  0  0
 17 19  1  0  0  0  0
 17 20  1  0  0  0  0
 19 52  1  0  0  0  0
 19 53  1  0  0  0  0
 19 54  1  0  0  0  0
 21 22  1  0  0  0  0
 21 23  1  0  0  0  0
 21 34  1  0  0  0  0
 23 24  1  0  0  0  0
 24 25  1  0  0  0  0
 24 26  1  0  0  0  0
 24 28  1  0  0  0  0
 26 27  1  0  0  0  0
 27 55  1  0  0  0  0
 27 56  1  0  0  0  0
 27 57  1  0  0  0  0
 28 29  1  0  0  0  0
 28 30  1  0  0  0  0
 28 31  1  0  0  0  0
 30 58  1  0  0  0  0
 31 32  1  0  0  0  0
 31 33  1  0  0  0  0
 31 34  1  0  0  0  0
 33 59  1  0  0  0  0
 34 35  1  0  0  0  0
 34 36  1  0  0  0  0
 36 60  1  0  0  0  0
M  END
$$$$
