edta.cache
  ViewerPro         3D                             0

 33 37  0  0  0  0  0  0  0  0999 V2000
    1.0842    0.4677    0.8477 Co  0  1  0  0  0  0  0  0  0  1
    1.0279   -1.5189    0.0427 N   0  0  2  0  0  0  0  0  0  2
   -0.3562    1.0216   -0.6411 N   0  0  0  0  0  0  0  0  0  3
    0.3339   -1.3273   -1.2345 C   0  0  0  0  0  0  0  0  0  4
   -0.8214   -0.2782   -1.1348 C   0  0  0  0  0  0  0  0  0  5
    2.4426   -1.8575    0.0669 C   0  0  0  0  0  0  0  0  0  6
    3.1466   -1.1535    1.2471 C   0  0  0  0  0  0  0  0  0  7
    0.4397    1.7768   -1.6064 C   0  0  0  0  0  0  0  0  0  8
    1.9130    1.3969   -1.5485 C   0  0  0  0  0  0  0  0  0  9
   -1.2409    1.8689    0.1437 C   0  0  0  0  0  0  0  0  0 10
   -0.4504    2.5942    1.2542 C   0  0  0  0  0  0  0  0  0 11
    0.2536   -2.2578    1.0378 C   0  0  0  0  0  0  0  0  0 12
   -0.6566   -1.3421    1.8449 C   0  0  0  0  0  0  0  0  0 13
    4.2771   -1.4549    1.5532 O   0  0  0  0  0  0  0  0  0 14
    2.5724    1.2193   -2.5456 O   0  0  0  0  0  0  0  0  0 15
   -0.9657    3.4844    1.8902 O   0  0  0  0  0  0  0  0  0 16
   -1.7990   -1.6373    2.1061 O   0  0  0  0  0  0  0  0  0 17
    2.6675   -0.3312    2.0051 O   0  5  0  0  0  0  0  0  0 18
    2.5319    1.1709   -0.5356 O   0  5  0  0  0  0  0  0  0 19
    0.7175    2.4304    1.5532 O   0  5  0  0  0  0  0  0  0 20
   -0.3632   -0.2354    2.2313 O   0  5  0  0  0  0  0  0  0 21
    1.0415   -1.0178   -2.0407 H   0  0  0  0  0  0  0  0  0 22
   -0.0650   -2.3059   -1.5936 H   0  0  0  0  0  0  0  0  0 23
   -1.3090   -0.1469   -2.1302 H   0  0  0  0  0  0  0  0  0 24
   -1.6363   -0.6905   -0.4926 H   0  0  0  0  0  0  0  0  0 25
    2.9614   -1.5440   -0.8717 H   0  0  0  0  0  0  0  0  0 26
    2.5803   -2.9632    0.1284 H   0  0  0  0  0  0  0  0  0 27
    0.0403    1.6468   -2.6398 H   0  0  0  0  0  0  0  0  0 28
    0.4058    2.8758   -1.4087 H   0  0  0  0  0  0  0  0  0 29
   -1.7636    2.6046   -0.5127 H   0  0  0  0  0  0  0  0  0 30
   -2.0520    1.2794    0.6365 H   0  0  0  0  0  0  0  0  0 31
   -0.3360   -3.0738    0.5574 H   0  0  0  0  0  0  0  0  0 32
    0.9094   -2.7642    1.7870 H   0  0  0  0  0  0  0  0  0 33
 17 13  2  0  0  0
 16 11  2  0  0  0
 18  7  1  0  0  0
 14  7  2  0  0  0
 21 13  1  0  0  0
 21  1  1  0  0  0
 20 11  1  0  0  0
 20  1  1  0  0  0
 13 12  1  0  0  0
 11 10  1  0  0  0
  7  6  1  0  0  0
  2  1  1  0  0  0
 19  1  1  0  0  0
  3  1  1  0  0  0
 12  2  1  0  0  0
 10  3  1  0  0  0
  6  2  1  0  0  0
  2  4  1  0  0  0
 19  9  1  0  0  0
  3  8  1  0  0  0
  3  5  1  0  0  0
  9  8  1  0  0  0
  9 15  2  0  0  0
  5  4  1  0  0  0
 18  1  1  0  0  0
  4 22  1  0  0  0
  4 23  1  0  0  0
  5 24  1  0  0  0
  5 25  1  0  0  0
  6 26  1  0  0  0
  6 27  1  0  0  0
  8 28  1  0  0  0
  8 29  1  0  0  0
 10 30  1  0  0  0
 10 31  1  0  0  0
 12 32  1  0  0  0
 12 33  1  0  0  0
M  END
